3
SiOH+_1 (1-SG / C*V)
Si     0.000000     0.000000     0.646147
 O     0.000000     0.000000    -0.897806
 H     0.000000     0.000000    -1.863620

-------- ENERGY AND PROPERTIES --------

 Rotational constants:       0.0000000       18.0502669       18.0502669 GHz

 ECCSD(T)/aug-cc-pVTZ = -364.5169967 Eh

 MU_X      MU_Y      MU_Z       MU
 0.000     0.000    0.446    0.446
